data_felixrefine
loop_
_cell_length_a  5.6533
_cell_length_b  5.6533
_cell_length_c  5.6533
_cell_angle_alpha   90.00
_cell_angle_beta   90.00
_cell_angle_gamma   90.00
_symmetry_space_group_name_H-M 'F -4 3 m  '
     
loop_
      _atom_site_label
_atom_site_type_symbol
_atom_site_fract_x
_atom_site_fract_y
_atom_site_fract_z
_atom_site_B_iso_or_equiv
_atom_site_occupancy
Ga1  Ga  0.0000  0.0000  0.0000  0.68  1.00
As1  As  0.2500  0.2500  0.2500  0.63  1.00
#End of refinement cif
